464205
  -OEChem-06262310073D

 33 34  0     1  0  0  0  0  0999 V2000
   -3.1873    1.3724   -0.4069 P   0  0  0  0  0  0  0  0  0  0  0  0
   -1.7499   -0.6774    0.0611 O   0  0  0  0  0  0  0  0  0  0  0  0
   -3.4595    1.5438    1.1770 O   0  0  0  0  0  0  0  0  0  0  0  0
   -4.6391    1.6409   -1.0646 O   0  0  0  0  0  0  0  0  0  0  0  0
   -2.0748    2.2129   -0.9590 O   0  0  0  0  0  0  0  0  0  0  0  0
    1.0220   -1.5863    0.1039 N   0  0  0  0  0  0  0  0  0  0  0  0
    2.7443   -1.1397   -1.2085 N   0  0  0  0  0  0  0  0  0  0  0  0
    0.9269    0.4501    1.4180 N   0  0  0  0  0  0  0  0  0  0  0  0
    2.6830    2.0034    0.7402 N   0  0  0  0  0  0  0  0  0  0  0  0
    4.2440    1.4973   -1.0017 N   0  0  0  0  0  0  0  0  0  0  0  0
   -1.4221   -2.0565   -0.0336 C   0  0  1  0  0  0  0  0  0  0  0  0
   -0.0967   -2.3287    0.6838 C   0  0  0  0  0  0  0  0  0  0  0  0
    1.4357   -0.3496    0.4687 C   0  0  0  0  0  0  0  0  0  0  0  0
   -2.5580   -2.8388    0.6107 C   0  0  0  0  0  0  0  0  0  0  0  0
    2.5130   -0.0848   -0.3617 C   0  0  0  0  0  0  0  0  0  0  0  0
    1.8244   -2.0292   -0.8986 C   0  0  0  0  0  0  0  0  0  0  0  0
   -2.9686   -0.3832   -0.6082 C   0  0  0  0  0  0  0  0  0  0  0  0
    3.1438    1.1448   -0.2009 C   0  0  0  0  0  0  0  0  0  0  0  0
    1.6189    1.6086    1.4803 C   0  0  0  0  0  0  0  0  0  0  0  0
   -1.3221   -2.3355   -1.0903 H   0  0  0  0  0  0  0  0  0  0  0  0
   -0.1536   -2.0353    1.7390 H   0  0  0  0  0  0  0  0  0  0  0  0
    0.1663   -3.3920    0.6423 H   0  0  0  0  0  0  0  0  0  0  0  0
   -3.4306   -2.9121   -0.0466 H   0  0  0  0  0  0  0  0  0  0  0  0
   -2.2499   -3.8705    0.8144 H   0  0  0  0  0  0  0  0  0  0  0  0
   -2.8810   -2.3855    1.5544 H   0  0  0  0  0  0  0  0  0  0  0  0
    1.7019   -2.9953   -1.3691 H   0  0  0  0  0  0  0  0  0  0  0  0
   -2.9016   -0.6453   -1.6686 H   0  0  0  0  0  0  0  0  0  0  0  0
   -3.8330   -0.8680   -0.1490 H   0  0  0  0  0  0  0  0  0  0  0  0
    1.2763    2.3208    2.2232 H   0  0  0  0  0  0  0  0  0  0  0  0
    4.5895    0.8583   -1.7049 H   0  0  0  0  0  0  0  0  0  0  0  0
    4.6853    2.3965   -0.8659 H   0  0  0  0  0  0  0  0  0  0  0  0
   -3.5826    2.4455    1.5429 H   0  0  0  0  0  0  0  0  0  0  0  0
   -4.9780    2.5603   -1.1079 H   0  0  0  0  0  0  0  0  0  0  0  0
  1  3  1  0  0  0  0
  1  4  1  0  0  0  0
  1  5  2  0  0  0  0
  1 17  1  0  0  0  0
  2 11  1  0  0  0  0
  2 17  1  0  0  0  0
  3 32  1  0  0  0  0
  4 33  1  0  0  0  0
  6 12  1  0  0  0  0
  6 13  1  0  0  0  0
  6 16  1  0  0  0  0
  7 15  1  0  0  0  0
  7 16  2  0  0  0  0
  8 13  2  0  0  0  0
  8 19  1  0  0  0  0
  9 18  1  0  0  0  0
  9 19  2  0  0  0  0
 10 18  1  0  0  0  0
 10 30  1  0  0  0  0
 10 31  1  0  0  0  0
 11 12  1  0  0  0  0
 11 14  1  0  0  0  0
 11 20  1  0  0  0  0
 12 21  1  0  0  0  0
 12 22  1  0  0  0  0
 13 15  1  0  0  0  0
 14 23  1  0  0  0  0
 14 24  1  0  0  0  0
 14 25  1  0  0  0  0
 15 18  2  0  0  0  0
 16 26  1  0  0  0  0
 17 27  1  0  0  0  0
 17 28  1  0  0  0  0
 19 29  1  0  0  0  0
M  END
> <PUBCHEM_COMPOUND_CID>
464205

> <PUBCHEM_CONFORMER_RMSD>
0.6

> <PUBCHEM_CONFORMER_DIVERSEORDER>
3
22
16
9
26
6
27
1
7
18
2
24
12
10
19
21
15
17
14
20
11
23
8
25
4
5
13

> <PUBCHEM_MMFF94_PARTIAL_CHARGES>
24
1 1.24
10 -0.9
11 0.28
12 0.26
13 0.11
15 0.23
16 0.04
17 0.28
18 0.41
19 0.47
2 -0.56
26 0.15
29 0.15
3 -0.77
30 0.4
31 0.4
32 0.5
33 0.5
4 -0.77
5 -0.7
6 0.05
7 -0.57
8 -0.57
9 -0.62

> <PUBCHEM_EFFECTIVE_ROTOR_COUNT>
5

> <PUBCHEM_PHARMACOPHORE_FEATURES>
12
1 10 cation
1 10 donor
1 2 acceptor
1 3 acceptor
1 4 acceptor
1 5 acceptor
3 6 7 16 cation
3 6 8 13 cation
3 8 9 19 cation
4 1 3 4 5 anion
5 6 7 13 15 16 rings
6 8 9 13 15 18 19 rings

> <PUBCHEM_HEAVY_ATOM_COUNT>
19

> <PUBCHEM_ATOM_DEF_STEREO_COUNT>
1

> <PUBCHEM_ATOM_UDEF_STEREO_COUNT>
0

> <PUBCHEM_BOND_DEF_STEREO_COUNT>
0

> <PUBCHEM_BOND_UDEF_STEREO_COUNT>
0

> <PUBCHEM_ISOTOPIC_ATOM_COUNT>
0

> <PUBCHEM_COMPONENT_COUNT>
1

> <PUBCHEM_CACTVS_TAUTO_COUNT>
3

> <PUBCHEM_CONFORMER_ID>
0007154D00000003

> <PUBCHEM_MMFF94_ENERGY>
5.3593

> <PUBCHEM_FEATURE_SELFOVERLAP>
61.541

> <PUBCHEM_SHAPE_FINGERPRINT>
10165383 225 18044957696030839575
10498660 4 18260823783336481805
10608611 8 18340487867012646410
10764073 3 17264645203300371290
12363563 72 11023817397105988429
12403259 226 17767970092714512522
128993 33 18264486191985766917
13294875 104 18191290607518518170
13464514 151 18342182150428331558
13764800 53 18187364372071065331
13965767 371 17241313681974084645
14251745 187 18341047505688557904
14386348 128 18338518538993044001
14957384 54 17241867857320148933
15163728 17 17607556762560513388
17134986 127 18190736445305151727
17357779 13 17981595272179897415
18186145 218 18270121193357086379
18219364 16 18338527343749652875
18981168 100 17968923202715927999
20510252 161 18263927816251936051
21524375 3 18337946771635645095
22182937 141 18340778108497286187
22802520 49 18342462568426479531
23114952 82 18271823297476156142
23557571 272 18119815956617589255
23559900 14 18271532988474728630
238 59 17917413372150936127
25 1 18342745095817688906
2748010 2 18199749313589675914
3524813 1 17984424302264480538
54672768 99 17828192199608924797
549884 4 18129371606010307331
6442390 28 18261689120578727915
7808743 9 18187085091358601420
81228 2 18189059866383139691
8988823 20 12829504653394079839
9862522 239 16907469258955159328

> <PUBCHEM_SHAPE_MULTIPOLES>
346.48
7.06
3.15
1.23
2.34
0.86
0.16
-4.4
-1.96
1.55
0.15
-0.22
-0.34
1.13

> <PUBCHEM_SHAPE_SELFOVERLAP>
713.77

> <PUBCHEM_SHAPE_VOLUME>
201.1

> <PUBCHEM_COORDINATE_TYPE>
2
5
10

$$$$
